48 
#CRYSTX      7.40371 9.43306 6.74437 90.00000 90.00000 90.00000 
C1 6.99910 1.33856 0.01569 
C2 0.40461 8.09450 -0.01569 
C3 4.10647 8.09450 3.38788 
C4 3.29724 1.33856 3.35649 
C5 0.40461 6.05509 3.35649 
C6 6.99910 3.37797 3.38788 
C7 3.29724 3.37797 -0.01569 
C8 4.10647 6.05509 0.01569 
C9 0.57776 0.89251 0.90491 
C10 6.82595 8.54055 5.83946 
C11 3.12409 8.54055 4.27710 
C12 4.27961 0.89251 2.46727 
C13 6.82595 5.60904 2.46727 
C14 0.57776 3.82402 4.27710 
C15 4.27961 3.82402 5.83946 
C16 3.12409 5.60904 0.90491 
C17 6.41771 0.44459 5.85573 
C18 0.98600 8.98847 0.88864 
C19 4.68786 8.98847 2.48355 
C20 2.71585 0.44459 4.26082 
C21 0.98600 5.16112 4.26082 
C22 6.41771 4.27194 2.48355 
C23 2.71585 4.27194 0.88864 
C24 4.68786 5.16112 5.85573 
H1 6.68738 2.38408 0.02891 
H2 0.71633 7.04898 -0.02891 
H3 4.41819 7.04898 3.40109 
H4 2.98552 2.38408 3.34328 
H5 0.71633 7.10061 3.34328 
H6 6.68738 2.33245 3.40109 
H7 2.98552 2.33245 -0.02891 
H8 4.41819 7.10061 0.02891 
H9 1.02428 1.58408 1.61893 
H10 6.37943 7.84898 5.12544 
H11 2.67757 7.84898 4.99112 
H12 4.72614 1.58408 1.75325 
H13 6.37943 6.30061 1.75325 
H14 1.02428 3.13245 4.99112 
H15 4.72614 3.13245 5.12544 
H16 2.67757 6.30061 1.61893 
H17 5.64395 0.77951 5.16337 
H18 1.75976 8.65355 1.58100 
H19 5.46161 8.65355 1.79118 
H20 1.94210 0.77951 4.95319 
H21 1.75976 5.49604 4.95319 
H22 5.64395 3.93702 1.79118 
H23 1.94210 3.93702 1.58100 
H24 5.46161 5.49604 5.16337 
