48 
#CRYSTX      7.40371 9.43306 6.74437 90.00000 90.00000 90.00000 
C 6.99910 1.33856 0.01569 
C 0.40461 8.09450 -0.01569 
C 4.10647 8.09450 3.38788 
C 3.29724 1.33856 3.35649 
C 0.40461 6.05509 3.35649 
C 6.99910 3.37797 3.38788 
C 3.29724 3.37797 -0.01569 
C 4.10647 6.05509 0.01569 
C 0.57776 0.89251 0.90491 
C 6.82595 8.54055 5.83946 
C 3.12409 8.54055 4.27710 
C 4.27961 0.89251 2.46727 
C 6.82595 5.60904 2.46727 
C 0.57776 3.82402 4.27710 
C 4.27961 3.82402 5.83946 
C 3.12409 5.60904 0.90491 
C 6.41771 0.44459 5.85573 
C 0.98600 8.98847 0.88864 
C 4.68786 8.98847 2.48355 
C 2.71585 0.44459 4.26082 
C 0.98600 5.16112 4.26082 
C 6.41771 4.27194 2.48355 
C 2.71585 4.27194 0.88864 
C 4.68786 5.16112 5.85573 
C 6.68738 2.38408 0.02891 
C 0.71633 7.04898 -0.02891 
C 4.41819 7.04898 3.40109 
C 2.98552 2.38408 3.34328 
C 0.71633 7.10061 3.34328 
C 6.68738 2.33245 3.40109 
C 2.98552 2.33245 -0.02891 
C 4.41819 7.10061 0.02891 
C 1.02428 1.58408 1.61893 
C 6.37943 7.84898 5.12544 
C 2.67757 7.84898 4.99112 
C 4.72614 1.58408 1.75325 
C 6.37943 6.30061 1.75325 
C 1.02428 3.13245 4.99112 
C 4.72614 3.13245 5.12544 
C 2.67757 6.30061 1.61893 
C 5.64395 0.77951 5.16337 
C 1.75976 8.65355 1.58100 
C 5.46161 8.65355 1.79118 
C 1.94210 0.77951 4.95319 
C 1.75976 5.49604 4.95319 
C 5.64395 3.93702 1.79118 
C 1.94210 3.93702 1.58100 
C 5.46161 5.49604 5.16337 
