12 
#CRYSTX      20.00000 20.00000 20.00000 90.00000 90.00000 90.00000 
C1 4.08566 6.02290 3.33114 
C2 3.26934 3.34810 3.36886 
C3 3.10048 5.58032 2.44418 
C4 4.25452 3.79068 4.25582 
C5 4.66276 5.12734 4.23642 
C6 2.69224 4.24366 2.46358 
H1 4.40120 7.06798 3.31738 
H2 2.95380 2.30302 3.38262 
H3 2.64998 6.27676 1.73572 
H4 4.70502 3.09424 4.96428 
H5 5.43360 5.47128 4.92752 
H6 1.92140 3.89972 1.77248 
