48 
#CRYSTX      7.35500 9.37100 6.70000 90.00000 90.00000 90.00000 
C 6.94841 1.33762 0.01718 
C 0.40659 8.03338 -0.01718 
C 4.08409 8.03338 3.36718 
C 3.27091 1.33762 3.33282 
C 0.40659 6.02312 3.33282 
C 6.94841 3.34788 3.36718 
C 3.27091 3.34788 -0.01718 
C 4.08409 6.02312 0.01718 
C 0.57793 0.89226 0.90414 
C 6.77707 8.47874 5.79586 
C 3.09957 8.47874 4.25414 
C 4.25543 0.89226 2.44586 
C 6.77707 5.57776 2.44586 
C 0.57793 3.79324 4.25414 
C 4.25543 3.79324 5.79586 
C 3.09957 5.57776 0.90414 
C 6.36758 0.44398 5.81248 
C 0.98742 8.92702 0.88752 
C 4.66492 8.92702 2.46248 
C 2.69008 0.44398 4.23752 
C 0.98742 5.12948 4.23752 
C 6.36758 4.24152 2.46248 
C 2.69008 4.24152 0.88752 
C 4.66492 5.12948 5.81248 
C 6.63425 2.38183 0.03243 
C 0.72075 6.98917 -0.03243 
C 4.39825 6.98917 3.38243 
C 2.95675 2.38183 3.31757 
C 0.72075 7.06733 3.31757 
C 6.63425 2.30367 3.38243 
C 2.95675 2.30367 -0.03243 
C 4.39825 7.06733 0.03243 
C 1.02598 1.58420 1.61609 
C 6.32902 7.78680 5.08391 
C 2.65152 7.78680 4.96609 
C 4.70348 1.58420 1.73391 
C 6.32902 6.26970 1.73391 
C 1.02598 3.10130 4.96609 
C 4.70348 3.10130 5.08391 
C 2.65152 6.26970 1.61609 
C 5.59415 0.77834 5.11984 
C 1.76085 8.59266 1.58016 
C 5.43835 8.59266 1.76984 
C 1.91665 0.77834 4.93016 
C 1.76085 5.46384 4.93016 
C 5.59415 3.90716 1.76984 
C 1.91665 3.90716 1.58016 
C 5.43835 5.46384 5.11984 
