48 
#CRYSTX      7.30564 9.30811 6.65503 90.00000 90.00000 90.00000 
C 6.89880 1.33751 0.01755 
C 0.40684 7.97059 -0.01755 
C 4.05966 7.97059 3.34506 
C 3.24598 1.33751 3.30997 
C 0.40684 5.99157 3.30997 
C 6.89880 3.31654 3.34506 
C 3.24598 3.31654 -0.01755 
C 4.05966 5.99157 0.01755 
C 0.57799 0.89213 0.90373 
C 6.72765 8.41598 5.75130 
C 3.07483 8.41598 4.23125 
C 4.23081 0.89213 2.42378 
C 6.72765 5.54618 2.42378 
C 0.57799 3.76193 4.23125 
C 4.23081 3.76193 5.75130 
C 3.07483 5.54618 0.90373 
C 6.31837 0.44413 5.76747 
C 0.98727 8.86398 0.88757 
C 4.64009 8.86398 2.43995 
C 2.66555 0.44413 4.21508 
C 0.98727 5.09818 4.21508 
C 6.31837 4.20993 2.43995 
C 2.66555 4.20993 0.88757 
C 4.64009 5.09818 5.76747 
C 6.58599 2.38207 0.03258 
C 0.71965 6.92604 -0.03258 
C 4.37247 6.92604 3.36010 
C 2.93317 2.38207 3.29493 
C 0.71965 7.03612 3.29493 
C 6.58599 2.27199 3.36010 
C 2.93317 2.27199 -0.03258 
C 4.37247 7.03612 0.03258 
C 1.02538 1.58328 1.61657 
C 6.28026 7.72483 5.03846 
C 2.62744 7.72483 4.94409 
C 4.67820 1.58328 1.71094 
C 6.28026 6.23734 1.71094 
C 1.02538 3.07077 4.94409 
C 4.67820 3.07077 5.03846 
C 2.62744 6.23734 1.61657 
C 5.54389 0.77800 5.07566 
C 1.76175 8.53011 1.57937 
C 5.41457 8.53011 1.74815 
C 1.89107 0.77800 4.90688 
C 1.76175 5.43205 4.90688 
C 5.54389 3.87606 1.74815 
C 1.89107 3.87606 1.57937 
C 5.41457 5.43205 5.07566 
