48 
#CRYSTX      7.25560 9.24435 6.60945 90.00000 90.00000 90.00000 
C 6.81502 1.32512 0.04216 
C 0.44058 7.91923 -0.04216 
C 4.06838 7.91923 3.34689 
C 3.18722 1.32512 3.26256 
C 0.44058 5.94730 3.26256 
C 6.81502 3.29705 3.34689 
C 3.18722 3.29705 -0.04216 
C 4.06838 5.94730 0.04216 
C 0.56280 0.89720 0.91009 
C 6.69280 8.34715 5.69936 
C 3.06500 8.34715 4.21482 
C 4.19060 0.89720 2.39463 
C 6.69280 5.51938 2.39463 
C 0.56280 3.72497 4.21482 
C 4.19060 3.72497 5.69936 
C 3.06500 5.51938 0.91009 
C 6.25399 0.42795 5.73718 
C 1.00161 8.81640 0.87227 
C 4.62941 8.81640 2.43246 
C 2.62619 0.42795 4.17699 
C 1.00161 5.05012 4.17699 
C 6.25399 4.19423 2.43246 
C 2.62619 4.19423 0.87227 
C 4.62941 5.05012 5.73718 
C 6.47406 2.36247 0.06818 
C 0.78154 6.88188 -0.06818 
C 4.40934 6.88188 3.37290 
C 2.84626 2.36247 3.23655 
C 0.78154 6.98464 3.23655 
C 6.47406 2.25971 3.37290 
C 2.84626 2.25971 -0.06818 
C 4.40934 6.98464 0.06818 
C 0.99843 1.58919 1.62759 
C 6.25717 7.65516 4.98186 
C 2.62937 7.65516 4.93232 
C 4.62623 1.58919 1.67713 
C 6.25717 6.21136 1.67713 
C 0.99843 3.03299 4.93232 
C 4.62623 3.03299 4.98186 
C 2.62937 6.21136 1.62759 
C 5.46152 0.75268 5.05635 
C 1.79408 8.49167 1.55310 
C 5.42188 8.49167 1.75162 
C 1.83372 0.75268 4.85783 
C 1.79408 5.37486 4.85783 
C 5.46152 3.86949 1.75162 
C 1.83372 3.86949 1.55310 
C 5.42188 5.37486 5.05635 
