48 
#CRYSTX      7.25560 9.24435 6.60945 90.00000 90.00000 90.00000 
C1 6.81502 1.32512 0.04216 
C2 0.44058 7.91923 -0.04216 
C3 4.06838 7.91923 3.34689 
C4 3.18722 1.32512 3.26256 
C5 0.44058 5.94730 3.26256 
C6 6.81502 3.29705 3.34689 
C7 3.18722 3.29705 -0.04216 
C8 4.06838 5.94730 0.04216 
C9 0.56280 0.89720 0.91009 
C10 6.69280 8.34715 5.69936 
C11 3.06500 8.34715 4.21482 
C12 4.19060 0.89720 2.39463 
C13 6.69280 5.51938 2.39463 
C14 0.56280 3.72497 4.21482 
C15 4.19060 3.72497 5.69936 
C16 3.06500 5.51938 0.91009 
C17 6.25399 0.42795 5.73718 
C18 1.00161 8.81640 0.87227 
C19 4.62941 8.81640 2.43246 
C20 2.62619 0.42795 4.17699 
C21 1.00161 5.05012 4.17699 
C22 6.25399 4.19423 2.43246 
C23 2.62619 4.19423 0.87227 
C24 4.62941 5.05012 5.73718 
H1 6.47406 2.36247 0.06818 
H2 0.78154 6.88188 -0.06818 
H3 4.40934 6.88188 3.37290 
H4 2.84626 2.36247 3.23655 
H5 0.78154 6.98464 3.23655 
H6 6.47406 2.25971 3.37290 
H7 2.84626 2.25971 -0.06818 
H8 4.40934 6.98464 0.06818 
H9 0.99843 1.58919 1.62759 
H10 6.25717 7.65516 4.98186 
H11 2.62937 7.65516 4.93232 
H12 4.62623 1.58919 1.67713 
H13 6.25717 6.21136 1.67713 
H14 0.99843 3.03299 4.93232 
H15 4.62623 3.03299 4.98186 
H16 2.62937 6.21136 1.62759 
H17 5.46152 0.75268 5.05635 
H18 1.79408 8.49167 1.55310 
H19 5.42188 8.49167 1.75162 
H20 1.83372 0.75268 4.85783 
H21 1.79408 5.37486 4.85783 
H22 5.46152 3.86949 1.75162 
H23 1.83372 3.86949 1.55310 
H24 5.42188 5.37486 5.05635 
