48 
#CRYSTX      7.20486 9.17970 6.56323 90.00000 90.00000 90.00000 
C1 6.79567 1.33642 0.02030 
C2 0.40919 7.84328 -0.02030 
C3 4.01162 7.84328 3.30192 
C4 3.19324 1.33642 3.26131 
C5 0.40919 5.92627 3.26131 
C6 6.79567 3.25343 3.30192 
C7 3.19324 3.25343 -0.02030 
C8 4.01162 5.92627 0.02030 
C9 0.57805 0.89167 0.90296 
C10 6.62681 8.28803 5.66027 
C11 3.02438 8.28803 4.18457 
C12 4.18048 0.89167 2.37866 
C13 6.62681 5.48152 2.37866 
C14 0.57805 3.69818 4.18457 
C15 4.18048 3.69818 5.66027 
C16 3.02438 5.48152 0.90296 
C17 6.21489 0.44309 5.67960 
C18 0.98997 8.73661 0.88363 
C19 4.59240 8.73661 2.39798 
C20 2.61246 0.44309 4.16525 
C21 0.98997 5.03294 4.16525 
C22 6.21489 4.14676 2.39798 
C23 2.61246 4.14676 0.88363 
C24 4.59240 5.03294 5.67960 
H1 6.48130 2.38020 0.03679 
H2 0.72356 6.79950 -0.03679 
H3 4.32599 6.79950 3.31840 
H4 2.87887 2.38020 3.24483 
H5 0.72356 6.97005 3.24483 
H6 6.48130 2.20965 3.31840 
H7 2.87887 2.20965 -0.03679 
H8 4.32599 6.97005 0.03679 
H9 1.02463 1.58188 1.61645 
H10 6.18023 7.59782 4.94678 
H11 2.57780 7.59782 4.89807 
H12 4.62706 1.58188 1.66516 
H13 6.18023 6.17173 1.66516 
H14 1.02463 3.00797 4.89807 
H15 4.62706 3.00797 4.94678 
H16 2.57780 6.17173 1.61645 
H17 5.43713 0.77459 4.99168 
H18 1.76773 8.40511 1.57155 
H19 5.37016 8.40511 1.71006 
H20 1.83470 0.77459 4.85317 
H21 1.76773 5.36444 4.85317 
H22 5.43713 3.81526 1.71006 
H23 1.83470 3.81526 1.57155 
H24 5.37016 5.36444 4.99168 
