48 
#CRYSTX      7.15339 9.11413 6.51635 90.00000 90.00000 90.00000 
C 6.73562 1.33331 0.02797 
C 0.41777 7.78082 -0.02797 
C 3.99446 7.78082 3.28615 
C 3.15893 1.33331 3.23020 
C 0.41777 5.89037 3.23020 
C 6.73562 3.22376 3.28615 
C 3.15893 3.22376 -0.02797 
C 3.99446 5.89037 0.02797 
C 0.57832 0.89166 0.90158 
C 6.57507 8.22247 5.61477 
C 2.99838 8.22247 4.15975 
C 4.15501 0.89166 2.35660 
C 6.57507 5.44873 2.35660 
C 0.57832 3.66540 4.15975 
C 4.15501 3.66540 5.61477 
C 2.99838 5.44873 0.90158 
C 6.15320 0.43937 5.64218 
C 1.00019 8.67476 0.87417 
C 4.57689 8.67476 2.38401 
C 2.57650 0.43937 4.13234 
C 1.00019 4.99644 4.13234 
C 6.15320 4.11769 2.38401 
C 2.57650 4.11769 0.87417 
C 4.57689 4.99644 5.64218 
C 6.41459 2.37468 0.05153 
C 0.73880 6.73945 -0.05153 
C 4.31550 6.73945 3.30971 
C 2.83789 2.37468 3.20664 
C 0.73880 6.93174 3.20664 
C 6.41459 2.18239 3.30971 
C 2.83789 2.18239 -0.05153 
C 4.31550 6.93174 0.05153 
C 1.02576 1.58211 1.61361 
C 6.12763 7.53202 4.90274 
C 2.55093 7.53202 4.87179 
C 4.60246 1.58211 1.64456 
C 6.12763 6.13918 1.64456 
C 1.02576 2.97495 4.87179 
C 4.60246 2.97495 4.90274 
C 2.55093 6.13918 1.61361 
C 5.36739 0.76755 4.96172 
C 1.78600 8.34658 1.55463 
C 5.36270 8.34658 1.70355 
C 1.79069 0.76755 4.81280 
C 1.78600 5.32461 4.81280 
C 5.36739 3.78952 1.70355 
C 1.79069 3.78952 1.55463 
C 5.36270 5.32461 4.96172 
