48 
#CRYSTX      7.15339 9.11413 6.51635 90.00000 90.00000 90.00000 
C1 6.73562 1.33331 0.02797 
C2 0.41777 7.78082 -0.02797 
C3 3.99446 7.78082 3.28615 
C4 3.15893 1.33331 3.23020 
C5 0.41777 5.89037 3.23020 
C6 6.73562 3.22376 3.28615 
C7 3.15893 3.22376 -0.02797 
C8 3.99446 5.89037 0.02797 
C9 0.57832 0.89166 0.90158 
C10 6.57507 8.22247 5.61477 
C11 2.99838 8.22247 4.15975 
C12 4.15501 0.89166 2.35660 
C13 6.57507 5.44873 2.35660 
C14 0.57832 3.66540 4.15975 
C15 4.15501 3.66540 5.61477 
C16 2.99838 5.44873 0.90158 
C17 6.15320 0.43937 5.64218 
C18 1.00019 8.67476 0.87417 
C19 4.57689 8.67476 2.38401 
C20 2.57650 0.43937 4.13234 
C21 1.00019 4.99644 4.13234 
C22 6.15320 4.11769 2.38401 
C23 2.57650 4.11769 0.87417 
C24 4.57689 4.99644 5.64218 
H1 6.41459 2.37468 0.05153 
H2 0.73880 6.73945 -0.05153 
H3 4.31550 6.73945 3.30971 
H4 2.83789 2.37468 3.20664 
H5 0.73880 6.93174 3.20664 
H6 6.41459 2.18239 3.30971 
H7 2.83789 2.18239 -0.05153 
H8 4.31550 6.93174 0.05153 
H9 1.02576 1.58211 1.61361 
H10 6.12763 7.53202 4.90274 
H11 2.55093 7.53202 4.87179 
H12 4.60246 1.58211 1.64456 
H13 6.12763 6.13918 1.64456 
H14 1.02576 2.97495 4.87179 
H15 4.60246 2.97495 4.90274 
H16 2.55093 6.13918 1.61361 
H17 5.36739 0.76755 4.96172 
H18 1.78600 8.34658 1.55463 
H19 5.36270 8.34658 1.70355 
H20 1.79069 0.76755 4.81280 
H21 1.78600 5.32461 4.81280 
H22 5.36739 3.78952 1.70355 
H23 1.79069 3.78952 1.55463 
H24 5.36270 5.32461 4.96172 
