48 
#CRYSTX      7.10117 9.04760 6.46878 90.00000 90.00000 90.00000 
C1 6.69179 1.33550 0.02053 
C2 0.40938 7.71210 -0.02053 
C3 3.95997 7.71210 3.25492 
C4 3.14120 1.33550 3.21386 
C5 0.40938 5.85930 3.21386 
C6 6.69179 3.18830 3.25492 
C7 3.14120 3.18830 -0.02053 
C8 3.95997 5.85930 0.02053 
C9 0.57721 0.89023 0.90261 
C10 6.52396 8.15737 5.56617 
C11 2.97337 8.15737 4.13700 
C12 4.12780 0.89023 2.33178 
C13 6.52396 5.41403 2.33178 
C14 0.57721 3.63357 4.13700 
C15 4.12780 3.63357 5.56617 
C16 2.97337 5.41403 0.90261 
C17 6.11068 0.44315 5.58551 
C18 0.99049 8.60445 0.88327 
C19 4.54108 8.60445 2.35112 
C20 2.56009 0.44315 4.11766 
C21 0.99049 4.96695 4.11766 
C22 6.11068 4.08065 2.35112 
C23 2.56009 4.08065 0.88327 
C24 4.54108 4.96695 5.58551 
H1 6.37823 2.37875 0.03789 
H2 0.72294 6.66885 -0.03789 
H3 4.27353 6.66885 3.27228 
H4 2.82764 2.37875 3.19650 
H5 0.72294 6.90255 3.19650 
H6 6.37823 2.14505 3.27228 
H7 2.82764 2.14505 -0.03789 
H8 4.27353 6.90255 0.03789 
H9 1.02500 1.57964 1.61463 
H10 6.07617 7.46796 4.85415 
H11 2.52558 7.46796 4.84902 
H12 4.57559 1.57964 1.61976 
H13 6.07617 6.10344 1.61976 
H14 1.02500 2.94416 4.84902 
H15 4.57559 2.94416 4.85415 
H16 2.52558 6.10344 1.61463 
H17 5.33367 0.77392 4.89709 
H18 1.76750 8.27368 1.57169 
H19 5.31809 8.27368 1.66270 
H20 1.78308 0.77392 4.80608 
H21 1.76750 5.29772 4.80608 
H22 5.33367 3.74988 1.66270 
H23 1.78308 3.74988 1.57169 
H24 5.31809 5.29772 4.89709 
