48 
#CRYSTX      6.93973 8.84190 6.32171 90.00000 90.00000 90.00000 
C 6.52025 1.33108 0.03114 
C 0.41948 7.51082 -0.03114 
C 3.88934 7.51082 3.19200 
C 3.05039 1.33108 3.12971 
C 0.41948 5.75203 3.12971 
C 6.52025 3.08987 3.19200 
C 3.05039 3.08987 -0.03114 
C 3.88934 5.75203 0.03114 
C 0.57691 0.88858 0.90014 
C 6.36282 7.95332 5.42157 
C 2.89295 7.95332 4.06099 
C 4.04678 0.88858 2.26072 
C 6.36282 5.30953 2.26072 
C 0.57691 3.53237 4.06099 
C 4.04678 3.53237 5.42157 
C 2.89295 5.30953 0.90014 
C 5.93679 0.43893 5.45279 
C 1.00294 8.40297 0.86892 
C 4.47280 8.40297 2.29194 
C 2.46693 0.43893 4.02977 
C 1.00294 4.85988 4.02977 
C 5.93679 3.98203 2.29194 
C 2.46693 3.98203 0.86892 
C 4.47280 4.85988 5.45279 
C 6.20276 2.37218 0.05558 
C 0.73697 6.46972 -0.05558 
C 4.20684 6.46972 3.21644 
C 2.73289 2.37218 3.10527 
C 0.73697 6.79313 3.10527 
C 6.20276 2.04877 3.21644 
C 2.73289 2.04877 -0.05558 
C 4.20684 6.79313 0.05558 
C 1.02231 1.57587 1.61358 
C 5.91742 7.26603 4.70813 
C 2.44755 7.26603 4.77443 
C 4.49218 1.57587 1.54728 
C 5.91742 5.99682 1.54728 
C 1.02231 2.84508 4.77443 
C 4.49218 2.84508 4.70813 
C 2.44755 5.99682 1.61358 
C 5.14534 0.76186 4.77887 
C 1.79439 8.08004 1.54284 
C 5.26426 8.08004 1.61801 
C 1.67547 0.76186 4.70370 
C 1.79439 5.18281 4.70370 
C 5.14534 3.65909 1.61801 
C 1.67547 3.65909 1.54284 
C 5.26426 5.18281 4.77887 
