48 
#CRYSTX      6.46774 8.24054 5.89175 90.00000 90.00000 90.00000 
C 6.02859 1.31724 0.05135 
C 0.43915 6.92330 -0.05135 
C 3.67302 6.92330 2.99722 
C 2.79472 1.31724 2.89453 
C 0.43915 5.43751 2.89453 
C 6.02859 2.80303 2.99722 
C 2.79472 2.80303 -0.05135 
C 3.67302 5.43751 0.05135 
C 0.57441 0.88083 0.88743 
C 5.89333 7.35971 5.00432 
C 2.65946 7.35971 3.83331 
C 3.80828 0.88083 2.05844 
C 5.89333 5.00110 2.05844 
C 0.57441 3.23944 3.83331 
C 3.80828 3.23944 5.00432 
C 2.65946 5.00110 0.88743 
C 5.43638 0.42617 5.06050 
C 1.03136 7.81437 0.83125 
C 4.26523 7.81437 2.11463 
C 2.20251 0.42617 3.77712 
C 1.03136 4.54644 3.77712 
C 5.43638 3.69410 2.11463 
C 2.20251 3.69410 0.83125 
C 4.26523 4.54644 5.06050 
C 5.70880 2.35239 0.09330 
C 0.75894 5.88815 -0.09330 
C 3.99281 5.88815 3.03917 
C 2.47493 2.35239 2.85258 
C 0.75894 6.47266 2.85258 
C 5.70880 1.76788 3.03917 
C 2.47493 1.76788 -0.09330 
C 3.99281 6.47266 0.09330 
C 1.01738 1.56114 1.59691 
C 5.45036 6.67940 4.29484 
C 2.21649 6.67940 4.54279 
C 4.25125 1.56114 1.34896 
C 5.45036 5.68141 1.34896 
C 1.01738 2.55913 4.54279 
C 4.25125 2.55913 4.29484 
C 2.21649 5.68141 1.59691 
C 4.60623 0.72079 4.43161 
C 1.86151 7.51975 1.46014 
C 5.09538 7.51975 1.48573 
C 1.37236 0.72079 4.40602 
C 1.86151 4.84106 4.40602 
C 4.60623 3.39948 1.48573 
C 1.37236 3.39948 1.46014 
C 5.09538 4.84106 4.43161 
