48 
#CRYSTX      7.49925 9.55479 6.83141 90.00000 90.00000 90.00000 
C 7.09393 1.33844 0.01574 
C 0.40532 8.21635 -0.01574 
C 4.15494 8.21635 3.43144 
C 3.34431 1.33844 3.39997 
C 0.40532 6.11584 3.39997 
C 7.09393 3.43895 3.43144 
C 3.34431 3.43895 -0.01574 
C 4.15494 6.11584 0.01574 
C 0.57806 0.89271 0.90498 
C 6.92119 8.66208 5.92643 
C 3.17157 8.66208 4.32069 
C 4.32768 0.89271 2.51072 
C 6.92119 5.67011 2.51072 
C 0.57806 3.88468 4.32069 
C 4.32768 3.88468 5.92643 
C 3.17157 5.67011 0.90498 
C 6.51266 0.44465 5.94181 
C 0.98659 9.11014 0.88960 
C 4.73622 9.11014 2.52611 
C 2.76303 0.44465 4.30530 
C 0.98659 5.22205 4.30530 
C 6.51266 4.33274 2.52611 
C 2.76303 4.33274 0.88960 
C 4.73622 5.22205 5.94181 
C 6.78111 2.38380 0.02949 
C 0.71814 7.17099 -0.02949 
C 4.46776 7.17099 3.44520 
C 3.03149 2.38380 3.38621 
C 0.71814 7.16119 3.38621 
C 6.78111 2.39360 3.44520 
C 3.03149 2.39360 -0.02949 
C 4.46776 7.16119 0.02949 
C 1.02560 1.58526 1.61792 
C 6.47365 7.96953 5.21349 
C 2.72403 7.96953 5.03363 
C 4.77522 1.58526 1.79778 
C 6.47365 6.36266 1.79778 
C 1.02560 3.19213 5.03363 
C 4.77522 3.19213 5.21349 
C 2.72403 6.36266 1.61792 
C 5.73973 0.78054 5.24865 
C 1.75952 8.77425 1.58276 
C 5.50914 8.77425 1.83294 
C 1.99011 0.78054 4.99847 
C 1.75952 5.55794 4.99847 
C 5.73973 3.99685 1.83294 
C 1.99011 3.99685 1.58276 
C 5.50914 5.55794 5.24865 
