72 
#CRYSTX      11.93752 8.34991 8.34472 90.00000 90.00000 90.00000 
H1 9.58660 4.86204 7.77792 
H2 2.35092 3.48787 0.56680 
H3 2.35092 7.66282 3.60556 
H4 9.58660 0.68709 4.73916 
H5 2.35092 0.68709 4.73916 
H6 9.58660 7.66282 3.60556 
H7 9.58660 3.48787 0.56680 
H8 2.35092 4.86204 7.77792 
H9 3.61784 0.68709 7.77792 
H10 8.31968 7.66282 0.56680 
H11 8.31968 3.48787 3.60556 
H12 3.61784 4.86204 4.73916 
H13 8.31968 4.86204 4.73916 
H14 3.61784 3.48787 3.60556 
H15 3.61784 7.66282 0.56680 
H16 8.31968 0.68709 7.77792 
H17 8.31433 4.75004 0.68438 
H18 3.62319 3.59987 7.66034 
H19 3.62319 7.77483 4.85674 
H20 8.31433 0.57508 3.48798 
H21 3.62319 0.57508 3.48798 
H22 8.31433 7.77483 4.85674 
H23 8.31433 3.59987 7.66034 
H24 3.62319 4.75004 0.68438 
H25 2.34557 0.57508 0.68438 
H26 9.59195 7.77483 7.66034 
H27 9.59195 3.59987 4.85674 
H28 2.34557 4.75004 3.48798 
H29 9.59195 4.75004 3.48798 
H30 2.34557 3.59987 4.85674 
H31 2.34557 7.77483 7.66034 
H32 9.59195 0.57508 0.68438 
H33 0.94175 6.61181 1.59862 
H34 10.99577 1.73810 6.74610 
H35 10.99577 5.91306 5.77098 
H36 0.94175 2.43685 2.57374 
H37 10.99577 2.43685 2.57374 
H38 0.94175 5.91306 5.77098 
H39 0.94175 1.73810 6.74610 
H40 10.99577 6.61181 1.59862 
H41 6.91051 2.43685 1.59862 
H42 5.02701 5.91306 6.74610 
H43 5.02701 1.73810 5.77098 
H44 6.91051 6.61181 2.57374 
H45 5.02701 6.61181 2.57374 
H46 6.91051 1.73810 5.77098 
H47 6.91051 5.91306 6.74610 
H48 5.02701 2.43685 1.59862 
H49 -0.00000 4.99109 1.75366 
H50 -0.00000 3.35882 6.59106 
H51 -0.00000 7.53377 5.92602 
H52 -0.00000 0.81614 2.41870 
H53 5.96876 0.81614 1.75366 
H54 5.96876 7.53377 6.59106 
H55 5.96876 3.35882 5.92602 
H56 5.96876 4.99109 2.41870 
C1 -0.00000 6.07412 1.66353 
C2 -0.00000 2.27579 6.68119 
C3 -0.00000 6.45075 5.83589 
C4 -0.00000 1.89916 2.50883 
C5 5.96876 1.89916 1.66353 
C6 5.96876 6.45075 6.68119 
C7 5.96876 2.27579 5.83589 
C8 5.96876 6.07412 2.50883 
C9 8.94780 4.17496 0.00000 
C10 2.98972 4.17495 0.00000 
C11 2.98972 0.00000 4.17236 
C12 8.94780 0.00000 4.17236 
C13 2.97904 0.00000 0.00000 
C14 8.95848 0.00000 0.00000 
C15 8.95848 4.17496 4.17236 
C16 2.97904 4.17495 4.17236 
