80 
#CRYSTX      12.01214 8.40210 8.39687 90.00000 90.00000 90.00000 
H1 0.89496 6.54000 2.19417 
H2 11.11718 1.86210 6.20271 
H3 11.11718 6.06315 6.39260 
H4 0.89496 2.33895 2.00427 
H5 11.11718 2.33895 2.00427 
H6 0.89496 6.06315 6.39260 
H7 0.89496 1.86210 6.20271 
H8 11.11718 6.54000 2.19417 
H9 6.90103 2.33895 2.19417 
H10 5.11111 6.06315 6.20271 
H11 5.11111 1.86210 6.39260 
H12 6.90103 6.54000 2.00427 
H13 5.11111 6.54000 2.00427 
H14 6.90103 1.86210 6.39260 
H15 6.90103 6.06315 6.20271 
H16 5.11111 2.33895 2.19417 
H17 9.63911 4.88804 7.82583 
H18 2.37303 3.51406 0.57104 
H19 2.37303 7.71511 3.62740 
H20 9.63911 0.68699 4.76947 
H21 2.37303 0.68699 4.76947 
H22 9.63911 7.71511 3.62740 
H23 9.63911 3.51406 0.57104 
H24 2.37303 4.88804 7.82583 
H25 3.63304 0.68699 7.82583 
H26 8.37910 7.71511 0.57104 
H27 8.37910 3.51406 3.62740 
H28 3.63304 4.88804 4.76947 
H29 8.37910 4.88804 4.76947 
H30 3.63304 3.51406 3.62740 
H31 3.63304 7.71511 0.57104 
H32 8.37910 0.68699 7.82583 
H33 8.37327 4.77318 0.68817 
H34 3.63887 3.62892 7.70870 
H35 3.63887 7.82997 4.88660 
H36 8.37327 0.57213 3.51027 
H37 3.63887 0.57213 3.51027 
H38 8.37327 7.82997 4.88660 
H39 8.37327 3.62892 7.70870 
H40 3.63887 4.77318 0.68817 
H41 2.36720 0.57213 0.68817 
H42 9.64494 7.82997 7.70870 
H43 9.64494 3.62892 4.88660 
H44 2.36720 4.77318 3.51027 
H45 9.64494 4.77318 3.51027 
H46 2.36720 3.62892 4.88660 
H47 2.36720 7.82997 7.70870 
H48 9.64494 0.57213 0.68817 
H49 -0.00000 5.05997 1.73427 
H50 -0.00000 3.34213 6.66260 
H51 -0.00000 7.54318 5.93271 
H52 -0.00000 0.85892 2.46416 
H53 6.00607 0.85892 1.73427 
H54 6.00607 7.54318 6.66260 
H55 6.00607 3.34213 5.93271 
H56 6.00607 5.05997 2.46416 
H57 -0.00000 1.91834 7.74934 
H58 -0.00000 6.48376 0.64753 
H59 -0.00000 2.28271 3.55090 
H60 -0.00000 6.11939 4.84597 
H61 6.00607 6.11939 7.74934 
H62 6.00607 2.28271 0.64753 
H63 6.00607 6.48376 3.55090 
H64 6.00607 1.91834 4.84597 
C1 -0.00000 1.95373 2.50570 
C2 -0.00000 6.44837 5.89117 
C3 -0.00000 2.24732 6.70414 
C4 -0.00000 6.15478 1.69273 
C5 6.00607 6.15478 2.50570 
C6 6.00607 2.24732 5.89117 
C7 6.00607 6.44837 6.70414 
C8 6.00607 1.95373 1.69273 
C9 9.00507 4.20105 0.00000 
C10 3.00707 4.20105 0.00000 
C11 3.00707 0.00000 4.19843 
C12 9.00507 0.00000 4.19844 
C13 2.99900 0.00000 0.00000 
C14 9.01314 0.00000 0.00000 
C15 9.01314 4.20105 4.19844 
C16 2.99900 4.20105 4.19843 
