80 
#CRYSTX      11.86197 8.29707 8.29190 90.00000 90.00000 90.00000 
H1 0.89601 6.73524 1.77614 
H2 10.96596 1.56183 6.51576 
H3 10.96596 5.71037 5.92209 
H4 0.89601 2.58670 2.36981 
H5 10.96596 2.58670 2.36981 
H6 0.89601 5.71037 5.92209 
H7 0.89601 1.56183 6.51576 
H8 10.96596 6.73524 1.77614 
H9 6.82699 2.58670 1.77614 
H10 5.03498 5.71037 6.51576 
H11 5.03498 1.56183 5.92209 
H12 6.82699 6.73524 2.36981 
H13 5.03498 6.73524 2.36981 
H14 6.82699 1.56183 5.92209 
H15 6.82699 5.71037 6.51576 
H16 5.03498 2.58670 1.77614 
H17 9.62179 4.84252 7.72943 
H18 2.24018 3.45455 0.56247 
H19 2.24018 7.60309 3.58348 
H20 9.62179 0.69398 4.70842 
H21 2.24018 0.69398 4.70842 
H22 9.62179 7.60309 3.58348 
H23 9.62179 3.45455 0.56247 
H24 2.24018 4.84252 7.72943 
H25 3.69080 0.69398 7.72943 
H26 8.17117 7.60309 0.56247 
H27 8.17117 3.45455 3.58348 
H28 3.69080 4.84252 4.70842 
H29 8.17117 4.84252 4.70842 
H30 3.69080 3.45455 3.58348 
H31 3.69080 7.60309 0.56247 
H32 8.17117 0.69398 7.72943 
H33 8.35574 4.71422 0.69335 
H34 3.50623 3.58285 7.59855 
H35 3.50623 7.73138 4.83930 
H36 8.35574 0.56569 3.45260 
H37 3.50623 0.56569 3.45260 
H38 8.35574 7.73138 4.83930 
H39 8.35574 3.58285 7.59855 
H40 3.50623 4.71422 0.69335 
H41 2.42475 0.56569 0.69335 
H42 9.43722 7.73138 7.59855 
H43 9.43722 3.58285 4.83930 
H44 2.42475 4.71422 3.45260 
H45 9.43722 4.71422 3.45260 
H46 2.42475 3.58285 4.83930 
H47 2.42475 7.73138 7.59855 
H48 9.43722 0.56569 0.69335 
H49 0.00000 5.19779 1.57348 
H50 0.00000 3.09928 6.71842 
H51 0.00000 7.24781 5.71943 
H52 0.00000 1.04926 2.57247 
H53 5.93098 1.04926 1.57348 
H54 5.93098 7.24781 6.71842 
H55 5.93098 3.09928 5.71943 
H56 5.93098 5.19779 2.57247 
H57 0.00000 2.26864 3.88140 
H58 0.00000 6.02843 4.41050 
H59 0.00000 1.87989 -0.26455 
H60 0.00000 6.41718 0.26455 
H61 5.93098 6.41718 3.88140 
H62 5.93098 1.87989 4.41050 
H63 5.93098 6.02843 -0.26455 
H64 5.93098 2.26864 0.26455 
C1 0.00000 2.12164 2.79606 
C2 0.00000 6.17543 5.49584 
C3 0.00000 2.02689 6.94201 
C4 0.00000 6.27018 1.34989 
C5 5.93098 6.27018 2.79606 
C6 5.93098 2.02689 5.49584 
C7 5.93098 6.17543 6.94201 
C8 5.93098 2.12164 1.34989 
C9 8.98778 4.14854 0.00000 
C10 2.87419 4.14853 0.00000 
C11 2.87419 0.00000 4.14595 
C12 8.98778 0.00000 4.14595 
C13 3.05679 0.00000 0.00000 
C14 8.80518 0.00000 0.00000 
C15 8.80518 4.14854 4.14595 
C16 3.05679 4.14853 4.14595 
