80 
#CRYSTX      11.78544 8.24354 8.23840 90.00000 90.00000 90.00000 
H1 0.89126 6.82055 1.28755 
H2 10.89418 1.42299 6.95085 
H3 10.89418 5.54476 5.40675 
H4 0.89126 2.69878 2.83165 
H5 10.89418 2.69878 2.83165 
H6 0.89126 5.54476 5.40675 
H7 0.89126 1.42299 6.95085 
H8 10.89418 6.82055 1.28755 
H9 6.78398 2.69878 1.28755 
H10 5.00146 5.54476 6.95085 
H11 5.00146 1.42299 5.40675 
H12 6.78398 6.82055 2.83165 
H13 5.00146 6.82055 2.83165 
H14 6.78398 1.42299 5.40675 
H15 6.78398 5.54476 6.95085 
H16 5.00146 2.69878 1.28755 
H17 9.50048 4.81560 7.67105 
H18 2.28496 3.42794 0.56735 
H19 2.28496 7.54971 3.55185 
H20 9.50048 0.69383 4.68655 
H21 2.28496 0.69383 4.68655 
H22 9.50048 7.54971 3.55185 
H23 9.50048 3.42794 0.56735 
H24 2.28496 4.81560 7.67105 
H25 3.60776 0.69383 7.67105 
H26 8.17768 7.54971 0.56735 
H27 8.17768 3.42794 3.55185 
H28 3.60776 4.81560 4.68655 
H29 8.17768 4.81560 4.68655 
H30 3.60776 3.42794 3.55185 
H31 3.60776 7.54971 0.56735 
H32 8.17768 0.69383 7.67105 
H33 8.23492 4.69151 0.68916 
H34 3.55052 3.55203 7.54924 
H35 3.55052 7.67380 4.80836 
H36 8.23492 0.56974 3.43004 
H37 3.55052 0.56974 3.43004 
H38 8.23492 7.67380 4.80836 
H39 8.23492 3.55203 7.54924 
H40 3.55052 4.69151 0.68916 
H41 2.34220 0.56974 0.68916 
H42 9.44324 7.67380 7.54924 
H43 9.44324 3.55203 4.80836 
H44 2.34220 4.69151 3.43004 
H45 9.44324 4.69151 3.43004 
H46 2.34220 3.55203 4.80836 
H47 2.34220 7.67380 7.54924 
H48 9.44324 0.56974 0.68916 
H49 -0.00000 5.27285 1.13878 
H50 -0.00000 2.97069 7.09962 
H51 -0.00000 7.09246 5.25798 
H52 -0.00000 1.15108 2.98042 
H53 5.89272 1.15108 1.13878 
H54 5.89272 7.09246 7.09962 
H55 5.89272 2.97069 5.25798 
H56 5.89272 5.27285 2.98042 
H57 -0.00000 2.31878 4.32992 
H58 -0.00000 5.92476 3.90848 
H59 -0.00000 1.80299 0.21072 
H60 -0.00000 6.44055 8.02768 
H61 5.89272 6.44055 4.32992 
H62 5.89272 1.80299 3.90848 
H63 5.89272 5.92476 0.21072 
H64 5.89272 2.31878 8.02768 
C1 -0.00000 2.21330 3.23254 
C2 -0.00000 6.03024 5.00586 
C3 -0.00000 1.90847 7.35174 
C4 -0.00000 6.33507 0.88666 
C5 5.89272 6.33507 3.23254 
C6 5.89272 1.90847 5.00586 
C7 5.89272 6.03024 7.35174 
C8 5.89272 2.21330 0.88666 
C9 8.86721 4.12177 0.00000 
C10 2.91823 4.12177 0.00000 
C11 2.91823 0.00000 4.11920 
C12 8.86721 0.00000 4.11920 
C13 2.97449 0.00000 0.00000 
C14 8.81095 0.00000 0.00000 
C15 8.81095 4.12177 4.11920 
C16 2.97449 4.12177 4.11920 
