80 
#CRYSTX      11.70790 8.18930 8.18420 90.00000 90.00000 90.00000 
H1 0.89623 6.60853 1.79676 
H2 10.81167 1.58077 6.38744 
H3 10.81167 5.67542 5.88886 
H4 0.89623 2.51388 2.29534 
H5 10.81167 2.51388 2.29534 
H6 0.89623 5.67542 5.88886 
H7 0.89623 1.58077 6.38744 
H8 10.81167 6.60853 1.79676 
H9 6.75018 2.51388 1.79676 
H10 4.95772 5.67542 6.38744 
H11 4.95772 1.58077 5.88886 
H12 6.75018 6.60853 2.29534 
H13 4.95772 6.60853 2.29534 
H14 6.75018 1.58077 5.88886 
H15 6.75018 5.67542 6.38744 
H16 4.95772 2.51388 1.79676 
H17 9.49671 4.79796 7.63422 
H18 2.21119 3.39134 0.54998 
H19 2.21119 7.48599 3.54211 
H20 9.49671 0.70331 4.64208 
H21 2.21119 0.70331 4.64208 
H22 9.49671 7.48599 3.54211 
H23 9.49671 3.39134 0.54998 
H24 2.21119 4.79796 7.63422 
H25 3.64276 0.70331 7.63422 
H26 8.06514 7.48599 0.54998 
H27 8.06514 3.39134 3.54211 
H28 3.64276 4.79796 4.64208 
H29 8.06514 4.79796 4.64208 
H30 3.64276 3.39134 3.54211 
H31 3.64276 7.48599 0.54998 
H32 8.06514 0.70331 7.63422 
H33 8.23084 4.64784 0.70310 
H34 3.47706 3.54146 7.48110 
H35 3.47706 7.63611 4.79520 
H36 8.23084 0.55319 3.38900 
H37 3.47706 0.55319 3.38900 
H38 8.23084 7.63611 4.79520 
H39 8.23084 3.54146 7.48110 
H40 3.47706 4.64784 0.70310 
H41 2.37689 0.55319 0.70310 
H42 9.33101 7.63611 7.48110 
H43 9.33101 3.54146 4.79520 
H44 2.37689 4.64784 3.38900 
H45 9.33101 4.64784 3.38900 
H46 2.37689 3.54146 4.79520 
H47 2.37689 7.63611 7.48110 
H48 9.33101 0.55319 0.70310 
H49 -0.00000 5.07582 1.56557 
H50 -0.00000 3.11348 6.61863 
H51 -0.00000 7.20813 5.65767 
H52 -0.00000 0.98117 2.52653 
H53 5.85395 0.98117 1.56557 
H54 5.85395 7.20813 6.61863 
H55 5.85395 3.11348 5.65767 
H56 5.85395 5.07582 2.52653 
H57 -0.00000 2.22552 3.81211 
H58 -0.00000 5.96378 4.37209 
H59 -0.00000 1.86913 -0.27999 
H60 -0.00000 6.32017 0.27999 
H61 5.85395 6.32017 3.81211 
H62 5.85395 1.86913 4.37209 
H63 5.85395 5.96378 -0.27999 
H64 5.85395 2.22552 0.27999 
C1 -0.00000 2.05773 2.72995 
C2 -0.00000 6.13157 5.45425 
C3 -0.00000 2.03692 6.82205 
C4 -0.00000 6.15238 1.36215 
C5 5.85395 6.15238 2.72995 
C6 5.85395 2.03692 5.45425 
C7 5.85395 6.13157 6.82205 
C8 5.85395 2.05773 1.36215 
C9 8.86241 4.09465 0.00000 
C10 2.84549 4.09465 0.00000 
C11 2.84549 0.00000 4.09210 
C12 8.86241 0.00000 4.09210 
C13 3.00846 0.00000 0.00000 
C14 8.69944 0.00000 0.00000 
C15 8.69944 4.09465 4.09210 
C16 3.00846 4.09465 4.09210 
