80 
#CRYSTX      11.70790 8.18930 8.18420 90.00000 90.00000 90.00000 
H1 0.89624 6.60857 1.79681 
H2 10.81166 1.58073 6.38739 
H3 10.81166 5.67538 5.88891 
H4 0.89624 2.51392 2.29529 
H5 10.81166 2.51392 2.29529 
H6 0.89624 5.67538 5.88891 
H7 0.89624 1.58073 6.38739 
H8 10.81166 6.60857 1.79681 
H9 6.75019 2.51392 1.79681 
H10 4.95771 5.67538 6.38739 
H11 4.95771 1.58073 5.88891 
H12 6.75019 6.60857 2.29529 
H13 4.95771 6.60857 2.29529 
H14 6.75019 1.58073 5.88891 
H15 6.75019 5.67538 6.38739 
H16 4.95771 2.51392 1.79681 
H17 9.49654 4.79804 7.63430 
H18 2.21136 3.39126 0.54990 
H19 2.21136 7.48591 3.54220 
H20 9.49654 0.70339 4.64200 
H21 2.21136 0.70339 4.64200 
H22 9.49654 7.48591 3.54220 
H23 9.49654 3.39126 0.54990 
H24 2.21136 4.79804 7.63430 
H25 3.64259 0.70339 7.63430 
H26 8.06531 7.48591 0.54990 
H27 8.06531 3.39126 3.54220 
H28 3.64259 4.79804 4.64200 
H29 8.06531 4.79804 4.64200 
H30 3.64259 3.39126 3.54220 
H31 3.64259 7.48591 0.54990 
H32 8.06531 0.70339 7.63430 
H33 8.23062 4.64789 0.70328 
H34 3.47728 3.54141 7.48092 
H35 3.47728 7.63606 4.79538 
H36 8.23062 0.55324 3.38882 
H37 3.47728 0.55324 3.38882 
H38 8.23062 7.63606 4.79538 
H39 8.23062 3.54141 7.48092 
H40 3.47728 4.64789 0.70328 
H41 2.37667 0.55324 0.70328 
H42 9.33123 7.63606 7.48092 
H43 9.33123 3.54141 4.79538 
H44 2.37667 4.64789 3.38882 
H45 9.33123 4.64789 3.38882 
H46 2.37667 3.54141 4.79538 
H47 2.37667 7.63606 7.48092 
H48 9.33123 0.55324 0.70328 
H49 -0.00000 5.07586 1.56551 
H50 -0.00000 3.11344 6.61869 
H51 -0.00000 7.20809 5.65761 
H52 -0.00000 0.98121 2.52659 
H53 5.85395 0.98121 1.56551 
H54 5.85395 7.20809 6.61869 
H55 5.85395 3.11344 5.65761 
H56 5.85395 5.07586 2.52659 
H57 -0.00000 2.22539 3.81222 
H58 -0.00000 5.96391 4.37198 
H59 -0.00000 1.86926 7.90432 
H60 -0.00000 6.32004 0.27988 
H61 5.85395 6.32004 3.81222 
H62 5.85395 1.86926 4.37198 
H63 5.85395 5.96391 7.90432 
H64 5.85395 2.22539 0.27988 
C1 -0.00000 2.05745 2.72986 
C2 -0.00000 6.13185 5.45434 
C3 -0.00000 2.03720 6.82196 
C4 -0.00000 6.15210 1.36224 
C5 5.85395 6.15210 2.72986 
C6 5.85395 2.03720 5.45434 
C7 5.85395 6.13185 6.82196 
C8 5.85395 2.05745 1.36224 
C9 8.86252 4.09465 0.00000 
C10 2.84538 4.09465 0.00000 
C11 2.84538 0.00000 4.09210 
C12 8.86252 0.00000 4.09210 
C13 3.00857 0.00000 0.00000 
C14 8.69933 0.00000 0.00000 
C15 8.69933 4.09465 4.09210 
C16 3.00857 4.09465 4.09210 
