80 
#CRYSTX      11.46890 8.02212 8.01713 90.00000 90.00000 90.00000 
H1 0.89391 6.38679 1.22722 
H2 10.57499 1.63533 6.78991 
H3 10.57499 5.64639 5.23579 
H4 0.89391 2.37573 2.78134 
H5 10.57499 2.37573 2.78134 
H6 0.89391 5.64639 5.23579 
H7 0.89391 1.63533 6.78991 
H8 10.57499 6.38679 1.22722 
H9 6.62836 2.37573 1.22722 
H10 4.84054 5.64639 6.78991 
H11 4.84054 1.63533 5.23579 
H12 6.62836 6.38679 2.78134 
H13 4.84054 6.38679 2.78134 
H14 6.62836 1.63533 5.23579 
H15 6.62836 5.64639 6.78991 
H16 4.84054 2.37573 1.22722 
H17 9.23328 4.69702 7.44462 
H18 2.23562 3.32510 0.57251 
H19 2.23562 7.33616 3.43605 
H20 9.23328 0.68596 4.58108 
H21 2.23562 0.68596 4.58108 
H22 9.23328 7.33616 3.43605 
H23 9.23328 3.32510 0.57251 
H24 2.23562 4.69702 7.44462 
H25 3.49883 0.68596 7.44462 
H26 7.97007 7.33616 0.57251 
H27 7.97007 3.32510 3.43605 
H28 3.49883 4.69702 4.58108 
H29 7.97007 4.69702 4.58108 
H30 3.49883 3.32510 3.43605 
H31 3.49883 7.33616 0.57251 
H32 7.97007 0.68596 7.44462 
H33 7.96891 4.58358 0.68850 
H34 3.49999 3.43854 7.32863 
H35 3.49999 7.44960 4.69706 
H36 7.96891 0.57252 3.32007 
H37 3.49999 0.57252 3.32007 
H38 7.96891 7.44960 4.69706 
H39 7.96891 3.43854 7.32863 
H40 3.49999 4.58358 0.68850 
H41 2.23446 0.57252 0.68850 
H42 9.23444 7.44960 7.32863 
H43 9.23444 3.43854 4.69706 
H44 2.23446 4.58358 3.32007 
H45 9.23444 4.58358 3.32007 
H46 2.23446 3.43854 4.69706 
H47 2.23446 7.44960 7.32863 
H48 9.23444 0.57252 0.68850 
H49 0.00000 4.83774 1.26399 
H50 0.00000 3.18438 6.75314 
H51 0.00000 7.19544 5.27255 
H52 0.00000 0.82668 2.74458 
H53 5.73445 0.82668 1.26399 
H54 5.73445 7.19544 6.75314 
H55 5.73445 3.18438 5.27255 
H56 5.73445 4.83774 2.74458 
H57 0.00000 2.11825 5.31735 
H58 0.00000 5.90387 2.69978 
H59 0.00000 1.89281 1.30879 
H60 0.00000 6.12931 6.70834 
H61 5.73445 6.12931 5.31735 
H62 5.73445 1.89281 2.69978 
H63 5.73445 5.90387 1.30879 
H64 5.73445 2.11825 6.70834 
C1 0.00000 1.86741 2.40382 
C2 0.00000 6.15471 5.61331 
C3 0.00000 2.14365 6.41238 
C4 0.00000 5.87847 1.60475 
C5 5.73445 5.87847 2.40382 
C6 5.73445 2.14365 5.61331 
C7 5.73445 6.15471 6.41238 
C8 5.73445 1.86741 1.60475 
C9 8.60007 4.01106 0.00000 
C10 2.86883 4.01106 0.00000 
C11 2.86883 0.00000 4.00856 
C12 8.60007 0.00000 4.00857 
C13 2.86562 0.00000 0.00000 
C14 8.60328 0.00000 0.00000 
C15 8.60328 4.01106 4.00857 
C16 2.86562 4.01106 4.00856 
