72 
#CRYSTX      11.38697 7.96482 7.95986 90.00000 90.00000 90.00000 
H1 9.17355 4.66916 7.39519 
H2 2.21342 3.29566 0.56467 
H3 2.21342 7.27807 3.41526 
H4 9.17355 0.68675 4.54460 
H5 2.21342 0.68675 4.54460 
H6 9.17355 7.27807 3.41526 
H7 9.17355 3.29566 0.56467 
H8 2.21342 4.66916 7.39519 
H9 3.48006 0.68675 7.39519 
H10 7.90691 7.27807 0.56467 
H11 7.90691 3.29566 3.41526 
H12 3.48006 4.66916 4.54460 
H13 7.90691 4.66916 4.54460 
H14 3.48006 3.29566 3.41526 
H15 3.48006 7.27807 0.56467 
H16 7.90691 0.68675 7.39519 
H17 7.90074 4.55736 0.68355 
H18 3.48623 3.40746 7.27631 
H19 3.48623 7.38987 4.66348 
H20 7.90074 0.57495 3.29638 
H21 3.48623 0.57495 3.29638 
H22 7.90074 7.38987 4.66348 
H23 7.90074 3.40746 7.27631 
H24 3.48623 4.55736 0.68355 
H25 2.20725 0.57495 0.68355 
H26 9.17972 7.38987 7.27631 
H27 9.17972 3.40746 4.66348 
H28 2.20725 4.55736 3.29638 
H29 9.17972 4.55736 3.29638 
H30 2.20725 3.40746 4.66348 
H31 2.20725 7.38987 7.27631 
H32 9.17972 0.57495 0.68355 
H33 0.94126 6.33335 1.51926 
H34 10.44571 1.63146 6.44060 
H35 10.44571 5.61388 5.49919 
H36 0.94126 2.35095 2.46067 
H37 10.44571 2.35095 2.46067 
H38 0.94126 5.61388 5.49919 
H39 0.94126 1.63146 6.44060 
H40 10.44571 6.33335 1.51926 
H41 6.63474 2.35095 1.51926 
H42 4.75223 5.61388 6.44060 
H43 4.75223 1.63146 5.49919 
H44 6.63474 6.33335 2.46067 
H45 4.75223 6.33335 2.46067 
H46 6.63474 1.63146 5.49919 
H47 6.63474 5.61388 6.44060 
H48 4.75223 2.35095 1.51926 
H49 0.00000 4.71319 1.67417 
H50 0.00000 3.25163 6.28569 
H51 0.00000 7.23404 5.65410 
H52 0.00000 0.73078 2.30576 
H53 5.69348 0.73078 1.67417 
H54 5.69348 7.23404 6.28569 
H55 5.69348 3.25163 5.65410 
H56 5.69348 4.71319 2.30576 
C1 0.00000 5.79616 1.58567 
C2 0.00000 2.16866 6.37419 
C3 0.00000 6.15107 5.56560 
C4 0.00000 1.81375 2.39426 
C5 5.69348 1.81375 1.58567 
C6 5.69348 6.15107 6.37419 
C7 5.69348 2.16866 5.56560 
C8 5.69348 5.79616 2.39426 
C9 8.53433 3.98241 0.00000 
C10 2.85264 3.98241 0.00000 
C11 2.85264 0.00000 3.97993 
C12 8.53433 0.00000 3.97993 
C13 2.84084 0.00000 0.00000 
C14 8.54613 0.00000 0.00000 
C15 8.54613 3.98241 3.97993 
C16 2.84084 3.98241 3.97993 
