80 
#CRYSTX      11.38697 7.96482 7.95986 90.00000 90.00000 90.00000 
H1 0.89660 6.52282 1.32607 
H2 10.49037 1.44200 6.63379 
H3 10.49037 5.42441 5.30600 
H4 0.89660 2.54041 2.65386 
H5 10.49037 2.54041 2.65386 
H6 0.89660 5.42441 5.30600 
H7 0.89660 1.44200 6.63379 
H8 10.49037 6.52282 1.32607 
H9 6.59008 2.54041 1.32607 
H10 4.79689 5.42441 6.63379 
H11 4.79689 1.44200 5.30600 
H12 6.59008 6.52282 2.65386 
H13 4.79689 6.52282 2.65386 
H14 6.59008 1.44200 5.30600 
H15 6.59008 5.42441 6.63379 
H16 4.79689 2.54041 1.32607 
H17 9.26409 4.67744 7.39873 
H18 2.12288 3.28738 0.56113 
H19 2.12288 7.26979 3.41880 
H20 9.26409 0.69503 4.54106 
H21 2.12288 0.69503 4.54106 
H22 9.26409 7.26979 3.41880 
H23 9.26409 3.28738 0.56113 
H24 2.12288 4.67744 7.39873 
H25 3.57060 0.69503 7.39873 
H26 7.81637 7.26979 0.56113 
H27 7.81637 3.28738 3.41880 
H28 3.57060 4.67744 4.54106 
H29 7.81637 4.67744 4.54106 
H30 3.57060 3.28738 3.41880 
H31 3.57060 7.26979 0.56113 
H32 7.81637 0.69503 7.39873 
H33 7.99943 4.54606 0.69368 
H34 3.38754 3.41876 7.26618 
H35 3.38754 7.40117 4.67361 
H36 7.99943 0.56365 3.28625 
H37 3.38754 0.56365 3.28625 
H38 7.99943 7.40117 4.67361 
H39 7.99943 3.41876 7.26618 
H40 3.38754 4.54606 0.69368 
H41 2.30594 0.56365 0.69368 
H42 9.08103 7.40117 7.26618 
H43 9.08103 3.41876 4.67361 
H44 2.30594 4.54606 3.28625 
H45 9.08103 4.54606 3.28625 
H46 2.30594 3.41876 4.67361 
H47 2.30594 7.40117 7.26618 
H48 9.08103 0.56365 0.69368 
H49 0.00000 4.98503 1.13278 
H50 0.00000 2.97979 6.82708 
H51 0.00000 6.96220 5.11271 
H52 0.00000 1.00262 2.84715 
H53 5.69348 1.00262 1.13278 
H54 5.69348 6.96220 6.82708 
H55 5.69348 2.97979 5.11271 
H56 5.69348 4.98503 2.84715 
H57 0.00000 2.21375 4.16044 
H58 0.00000 5.75107 3.79942 
H59 0.00000 1.76866 0.18051 
H60 0.00000 6.19616 7.77935 
H61 5.69348 6.19616 4.16044 
H62 5.69348 1.76866 3.79942 
H63 5.69348 5.75107 0.18051 
H64 5.69348 2.21375 7.77935 
C1 0.00000 2.07404 3.07462 
C2 0.00000 5.89078 4.88524 
C3 0.00000 1.90837 7.05455 
C4 0.00000 6.05645 0.90531 
C5 5.69348 6.05645 3.07462 
C6 5.69348 1.90837 4.88524 
C7 5.69348 5.89078 7.05455 
C8 5.69348 2.07404 0.90531 
C9 8.63148 3.98241 0.00000 
C10 2.75549 3.98241 0.00000 
C11 2.75549 0.00000 3.97993 
C12 8.63148 0.00000 3.97993 
C13 2.93800 0.00000 0.00000 
C14 8.44897 0.00000 0.00000 
C15 8.44897 3.98241 3.97993 
C16 2.93800 3.98241 3.97993 
