80 
#CRYSTX      11.30385 7.90668 7.90176 90.00000 90.00000 90.00000 
H1 0.89616 6.41697 1.71505 
H2 10.40769 1.48971 6.18671 
H3 10.40769 5.44305 5.66593 
H4 0.89616 2.46363 2.23583 
H5 10.40769 2.46363 2.23583 
H6 0.89616 5.44305 5.66593 
H7 0.89616 1.48971 6.18671 
H8 10.40769 6.41697 1.71505 
H9 6.54808 2.46363 1.71505 
H10 4.75577 5.44305 6.18671 
H11 4.75577 1.48971 5.66593 
H12 6.54808 6.41697 2.23583 
H13 4.75577 6.41697 2.23583 
H14 6.54808 1.48971 5.66593 
H15 6.54808 5.44305 6.18671 
H16 4.75577 2.46363 1.71505 
H17 9.17778 4.62967 7.32063 
H18 2.12607 3.27701 0.58113 
H19 2.12607 7.23035 3.36975 
H20 9.17778 0.67633 4.53201 
H21 2.12607 0.67633 4.53201 
H22 9.17778 7.23035 3.36975 
H23 9.17778 3.27701 0.58113 
H24 2.12607 4.62967 7.32063 
H25 3.52585 0.67633 7.32063 
H26 7.77800 7.23035 0.58113 
H27 7.77800 3.27701 3.36975 
H28 3.52585 4.62967 4.53201 
H29 7.77800 4.62967 4.53201 
H30 3.52585 3.27701 3.36975 
H31 3.52585 7.23035 0.58113 
H32 7.77800 0.67633 7.32063 
H33 7.91268 4.53865 0.67655 
H34 3.39117 3.36803 7.22521 
H35 3.39117 7.32137 4.62743 
H36 7.91268 0.58531 3.27433 
H37 3.39117 0.58531 3.27433 
H38 7.91268 7.32137 4.62743 
H39 7.91268 3.36803 7.22521 
H40 3.39117 4.53865 0.67655 
H41 2.26076 0.58531 0.67655 
H42 9.04309 7.32137 7.22521 
H43 9.04309 3.36803 4.62743 
H44 2.26076 4.53865 3.27433 
H45 9.04309 4.53865 3.27433 
H46 2.26076 3.36803 4.62743 
H47 2.26076 7.32137 7.22521 
H48 9.04309 0.58531 0.67655 
H49 0.00000 4.88804 1.45510 
H50 0.00000 3.01864 6.44666 
H51 0.00000 6.97198 5.40598 
H52 0.00000 0.93470 2.49578 
H53 5.65193 0.93470 1.45510 
H54 5.65193 6.97198 6.44666 
H55 5.65193 3.01864 5.40598 
H56 5.65193 4.88804 2.49578 
H57 0.00000 2.20454 3.75400 
H58 0.00000 5.70214 4.14776 
H59 0.00000 1.74880 7.70488 
H60 0.00000 6.15788 0.19688 
H61 5.65193 6.15788 3.75400 
H62 5.65193 1.74880 4.14776 
H63 5.65193 5.70214 7.70488 
H64 5.65193 2.20454 0.19688 
C1 0.00000 2.01420 2.67629 
C2 0.00000 5.89248 5.22547 
C3 0.00000 1.93914 6.62717 
C4 0.00000 5.96754 1.27459 
C5 5.65193 5.96754 2.67629 
C6 5.65193 1.93914 5.22547 
C7 5.65193 5.89248 6.62717 
C8 5.65193 2.01420 1.27459 
C9 8.54340 3.95334 0.00000 
C10 2.76045 3.95334 0.00000 
C11 2.76045 0.00000 3.95088 
C12 8.54340 0.00000 3.95088 
C13 2.89148 0.00000 0.00000 
C14 8.41237 0.00000 0.00000 
C15 8.41237 3.95334 3.95088 
C16 2.89148 3.95334 3.95088 
