72 
#CRYSTX      11.04686 7.72692 7.72211 90.00000 90.00000 90.00000 
H1 8.91475 4.55284 7.16284 
H2 2.13211 3.17408 0.55927 
H3 2.13211 7.03754 3.30178 
H4 8.91475 0.68938 4.42033 
H5 2.13211 0.68938 4.42033 
H6 8.91475 7.03754 3.30178 
H7 8.91475 3.17408 0.55927 
H8 2.13211 4.55284 7.16284 
H9 3.39132 0.68938 7.16284 
H10 7.65554 7.03754 0.55927 
H11 7.65554 3.17408 3.30178 
H12 3.39132 4.55284 4.42033 
H13 7.65554 4.55284 4.42033 
H14 3.39132 3.17408 3.30178 
H15 3.39132 7.03754 0.55927 
H16 7.65554 0.68938 7.16284 
H17 7.64098 4.43612 0.68608 
H18 3.40588 3.29080 7.03603 
H19 3.40588 7.15426 4.54713 
H20 7.64098 0.57266 3.17498 
H21 3.40588 0.57266 3.17498 
H22 7.64098 7.15426 4.54713 
H23 7.64098 3.29080 7.03603 
H24 3.40588 4.43612 0.68608 
H25 2.11755 0.57266 0.68608 
H26 8.92931 7.15426 7.03603 
H27 8.92931 3.29080 4.54713 
H28 2.11755 4.43612 3.17498 
H29 8.92931 4.43612 3.17498 
H30 2.11755 3.29080 4.54713 
H31 2.11755 7.15426 7.03603 
H32 8.92931 0.57266 0.68608 
H33 0.94109 6.17309 1.45503 
H34 10.10577 1.55383 6.26708 
H35 10.10577 5.41729 5.31609 
H36 0.94109 2.30963 2.40602 
H37 10.10577 2.30963 2.40602 
H38 0.94109 5.41729 5.31609 
H39 0.94109 1.55383 6.26708 
H40 10.10577 6.17309 1.45503 
H41 6.46452 2.30963 1.45503 
H42 4.58234 5.41729 6.26708 
H43 4.58234 1.55383 5.31609 
H44 6.46452 6.17309 2.40602 
H45 4.58234 6.17309 2.40602 
H46 6.46452 1.55383 5.31609 
H47 6.46452 5.41729 6.26708 
H48 4.58234 2.30963 1.45503 
H49 0.00000 4.55554 1.60607 
H50 0.00000 3.17138 6.11604 
H51 0.00000 7.03484 5.46712 
H52 0.00000 0.69208 2.25499 
H53 5.52343 0.69208 1.60607 
H54 5.52343 7.03484 6.11604 
H55 5.52343 3.17138 5.46712 
H56 5.52343 4.55554 2.25499 
C1 0.00000 5.63685 1.51911 
C2 0.00000 2.09007 6.20300 
C3 0.00000 5.95353 5.38016 
C4 0.00000 1.77339 2.34195 
C5 5.52343 1.77339 1.51911 
C6 5.52343 5.95353 6.20300 
C7 5.52343 2.09007 5.38016 
C8 5.52343 5.63685 2.34195 
C9 8.27341 3.86346 0.00000 
C10 2.77345 3.86346 0.00000 
C11 2.77345 0.00000 3.86105 
C12 8.27341 0.00000 3.86106 
C13 2.74998 0.00000 0.00000 
C14 8.29688 0.00000 0.00000 
C15 8.29688 3.86346 3.86106 
C16 2.74998 3.86346 3.86106 
