12 
#CRYSTX      4.96551 6.58670 4.22120 90.00000 90.00000 90.00000 
C1 4.41544 0.34892 4.07466 
C2 0.55007 6.23778 0.14654 
C3 3.03283 3.64227 2.25714 
C4 1.93268 2.94443 1.96406 
H1 4.02429 1.13320 0.50689 
H2 0.94122 5.45350 3.71431 
H3 3.42397 4.42655 1.60371 
H4 1.54154 2.16015 2.61749 
H5 3.84646 0.16971 3.15964 
H6 1.11905 6.41699 1.06156 
H7 3.60180 3.46306 3.17216 
H8 1.36371 3.12364 1.04904 
