72 
#CRYSTX      11.86197 8.29707 8.29190 90.00000 90.00000 90.00000 
H1 9.53007 4.83602 7.72516 
H2 2.33190 3.46105 0.56674 
H3 2.33190 7.60958 3.57921 
H4 9.53007 0.68749 4.71269 
H5 2.33190 0.68749 4.71269 
H6 9.53007 7.60958 3.57921 
H7 9.53007 3.46105 0.56674 
H8 2.33190 4.83602 7.72516 
H9 3.59909 0.68749 7.72516 
H10 8.26288 7.60958 0.56674 
H11 8.26288 3.46105 3.57921 
H12 3.59909 4.83602 4.71269 
H13 8.26288 4.83602 4.71269 
H14 3.59909 3.46105 3.57921 
H15 3.59909 7.60958 0.56674 
H16 8.26288 0.68749 7.72516 
H17 8.25693 4.72392 0.68491 
H18 3.60504 3.57315 7.60699 
H19 3.60504 7.72168 4.83086 
H20 8.25693 0.57539 3.46104 
H21 3.60504 0.57539 3.46104 
H22 8.25693 7.72168 4.83086 
H23 8.25693 3.57315 7.60699 
H24 3.60504 4.72392 0.68491 
H25 2.32594 0.57539 0.68491 
H26 9.53603 7.72168 7.60699 
H27 9.53603 3.57315 4.83086 
H28 2.32594 4.72392 3.46104 
H29 9.53603 4.72392 3.46104 
H30 2.32594 3.57315 4.83086 
H31 2.32594 7.72168 7.60699 
H32 9.53603 0.57539 0.68491 
H33 0.94127 6.57403 1.58774 
H34 10.92070 1.72304 6.70416 
H35 10.92070 5.87158 5.73369 
H36 0.94127 2.42549 2.55821 
H37 10.92070 2.42549 2.55821 
H38 0.94127 5.87158 5.73369 
H39 0.94127 1.72304 6.70416 
H40 10.92070 6.57403 1.58774 
H41 6.87226 2.42549 1.58774 
H42 4.98971 5.87158 6.70416 
H43 4.98971 1.72304 5.73369 
H44 6.87226 6.57403 2.55821 
H45 4.98971 6.57403 2.55821 
H46 6.87226 1.72304 5.73369 
H47 6.87226 5.87158 6.70416 
H48 4.98971 2.42549 1.58774 
H49 0.00000 4.95396 1.74265 
H50 0.00000 3.34311 6.54925 
H51 0.00000 7.49164 5.88860 
H52 0.00000 0.80543 2.40330 
H53 5.93098 0.80543 1.74265 
H54 5.93098 7.49164 6.54925 
H55 5.93098 3.34311 5.88860 
H56 5.93098 4.95396 2.40330 
C1 0.00000 6.03657 1.65150 
C2 0.00000 2.26050 6.64040 
C3 0.00000 6.40903 5.79745 
C4 0.00000 1.88804 2.49445 
C5 5.93098 1.88804 1.65150 
C6 5.93098 6.40903 6.64040 
C7 5.93098 2.26050 5.79745 
C8 5.93098 6.03657 2.49445 
C9 8.89145 4.14854 0.00000 
C10 2.97052 4.14853 0.00000 
C11 2.97052 0.00000 4.14595 
C12 8.89145 0.00000 4.14595 
C13 2.96046 0.00000 0.00000 
C14 8.90151 0.00000 0.00000 
C15 8.90151 4.14854 4.14595 
C16 2.96046 4.14853 4.14595 
