12 
#CRYSTX      4.90225 6.50278 4.16742 90.00000 90.00000 90.00000 
C1 4.35230 0.34845 4.02039 
C2 0.54995 6.15433 0.14703 
C3 3.00108 3.59984 2.23074 
C4 1.90117 2.90294 1.93668 
H1 3.96318 1.13219 0.50795 
H2 0.93907 5.37059 3.65947 
H3 3.39020 4.38358 1.57576 
H4 1.51205 2.11920 2.59166 
H5 3.78406 0.16871 3.10557 
H6 1.11819 6.33407 1.06185 
H7 3.56932 3.42010 3.14556 
H8 1.33293 3.08268 1.02186 
