72 
#CRYSTX      11.70790 8.18930 8.18420 90.00000 90.00000 90.00000 
H1 9.41499 4.78197 7.61819 
H2 2.29291 3.40733 0.56601 
H3 2.29291 7.50198 3.52609 
H4 9.41499 0.68732 4.65811 
H5 2.29291 0.68732 4.65811 
H6 9.41499 7.50198 3.52609 
H7 9.41499 3.40733 0.56601 
H8 2.29291 4.78197 7.61819 
H9 3.56104 0.68732 7.61819 
H10 8.14686 7.50198 0.56601 
H11 8.14686 3.40733 3.52609 
H12 3.56104 4.78197 4.65811 
H13 8.14686 4.78197 4.65811 
H14 3.56104 3.40733 3.52609 
H15 3.56104 7.50198 0.56601 
H16 8.14686 0.68732 7.61819 
H17 8.14143 4.67023 0.68428 
H18 3.56647 3.51907 7.49992 
H19 3.56647 7.61372 4.77638 
H20 8.14143 0.57558 3.40782 
H21 3.56647 0.57558 3.40782 
H22 8.14143 7.61372 4.77638 
H23 8.14143 3.51907 7.49992 
H24 3.56647 4.67023 0.68428 
H25 2.28748 0.57558 0.68428 
H26 9.42042 7.61372 7.49992 
H27 9.42042 3.51907 4.77638 
H28 2.28748 4.67023 3.40782 
H29 9.42042 4.67023 3.40782 
H30 2.28748 3.51907 4.77638 
H31 2.28748 7.61372 7.49992 
H32 9.42042 0.57558 0.68428 
H33 0.94196 6.49540 1.56621 
H34 10.76594 1.69390 6.61799 
H35 10.76594 5.78855 5.65831 
H36 0.94196 2.40075 2.52589 
H37 10.76594 2.40075 2.52589 
H38 0.94196 5.78855 5.65831 
H39 0.94196 1.69390 6.61799 
H40 10.76594 6.49540 1.56621 
H41 6.79591 2.40075 1.56621 
H42 4.91199 5.78855 6.61799 
H43 4.91199 1.69390 5.65831 
H44 6.79591 6.49540 2.52589 
H45 4.91199 6.49540 2.52589 
H46 6.79591 1.69390 5.65831 
H47 6.79591 5.78855 6.61799 
H48 4.91199 2.40075 1.56621 
H49 -0.00000 4.87490 1.72123 
H50 -0.00000 3.31440 6.46297 
H51 -0.00000 7.40905 5.81333 
H52 -0.00000 0.78025 2.37087 
H53 5.85395 0.78025 1.72123 
H54 5.85395 7.40905 6.46297 
H55 5.85395 3.31440 5.81333 
H56 5.85395 4.87490 2.37087 
C1 -0.00000 5.95766 1.63085 
C2 -0.00000 2.23164 6.55335 
C3 -0.00000 6.32629 5.72295 
C4 -0.00000 1.86301 2.46125 
C5 5.85395 1.86301 1.63085 
C6 5.85395 6.32629 6.55335 
C7 5.85395 2.23164 5.72295 
C8 5.85395 5.95766 2.46125 
C9 8.77532 4.09465 0.00000 
C10 2.93258 4.09465 0.00000 
C11 2.93258 0.00000 4.09210 
C12 8.77532 0.00000 4.09210 
C13 2.92137 0.00000 0.00000 
C14 8.78653 0.00000 0.00000 
C15 8.78653 4.09465 4.09210 
C16 2.92137 4.09465 4.09210 
