12 
#CRYSTX      4.77058 6.32813 4.05549 90.00000 90.00000 90.00000 
C1 4.22069 0.34819 3.90830 
C2 0.54989 5.97994 0.14719 
C3 2.93518 3.51226 2.17493 
C4 1.83540 2.81587 1.88056 
H1 3.83630 1.13017 0.51074 
H2 0.93428 5.19796 3.54475 
H3 3.31957 4.29424 1.51700 
H4 1.45101 2.03389 2.53849 
H5 3.65506 0.16584 2.99305 
H6 1.11552 6.16230 1.06244 
H7 3.50081 3.32990 3.09018 
H8 1.26977 2.99822 0.96531 
