12 
#CRYSTX      4.59503 6.09526 3.90625 90.00000 90.00000 90.00000 
C1 4.04629 0.34761 3.75981 
C2 0.54874 5.74765 0.14644 
C3 2.84625 3.39524 2.09956 
C4 1.74878 2.70002 1.80669 
H1 3.66683 1.12775 0.51430 
H2 0.92820 4.96751 3.39195 
H3 3.22571 4.17538 1.43882 
H4 1.36932 1.91988 2.46743 
H5 3.48501 0.16142 2.84447 
H6 1.11002 5.93384 1.06178 
H7 3.40754 3.20905 3.01490 
H8 1.18749 2.88621 0.89135 
