12 
#CRYSTX      3.99009 5.29282 3.39199 90.00000 90.00000 90.00000 
C1 3.44258 0.34297 -0.14610 
C2 0.54751 4.94985 0.14610 
C3 2.54255 2.98938 1.84209 
C4 1.44754 2.30344 1.54990 
H1 3.06036 1.11921 0.50582 
H2 0.92973 4.17361 2.88617 
H3 2.92478 3.76562 1.19017 
H4 1.06531 1.52720 2.20182 
H5 2.88131 0.16029 2.33753 
H6 1.10878 5.13253 1.05446 
H7 3.10383 2.80670 2.75046 
H8 0.88626 2.48612 0.64153 
